Questionable use of curly braces in ".model sir870adp vdmos(rg=3 vto=2.9 rd=3.2m rs=1.5m rb={m} kp=100 mtriode=1.85 cgdmax=1.4n cgdmin=70p cgs=2.9n cjo=3.6n m=.4 a=.7 vj=.7 lambda=20m is=3p ksubthres=.08 mfg=siliconix vds=100 ron=5.5m qg=53.5n)"
    Error: undefined symbol in: "[m]"
Circuit: * C:\Users\mary.west\Desktop\LTspice tutorial\Advanced\SIMS\CMRR.asc

Ignoring BSIM parameter XL
Ignoring BSIM parameter XW
Ignoring BSIM parameter XL
Ignoring BSIM parameter XW
Ignoring BSIM parameter XL
Ignoring BSIM parameter XW
Ignoring BSIM parameter XL
Ignoring BSIM parameter XW
Ignoring BSIM parameter XL
Ignoring BSIM parameter XW
Ignoring BSIM parameter XL
Ignoring BSIM parameter XW
Ignoring BSIM parameter XL
Ignoring BSIM parameter XW
Ignoring BSIM parameter XL
Ignoring BSIM parameter XW
Ignoring BSIM parameter XL
Ignoring BSIM parameter XW
Ignoring BSIM parameter XL
Ignoring BSIM parameter XW
Ignoring BSIM parameter XL
Ignoring BSIM parameter XW
Ignoring BSIM parameter XL
Ignoring BSIM parameter XW
Ignoring BSIM parameter XL
Ignoring BSIM parameter XW
Ignoring BSIM parameter XL
Ignoring BSIM parameter XW
Ignoring BSIM parameter XL
Ignoring BSIM parameter XW
Ignoring BSIM parameter XL
Ignoring BSIM parameter XW
WARNING: Node N002 is floating.

Warning: Pd = 0 is less than W.
Warning: Ps = 0 is less than W.
Warning: Pd = 0 is less than W.
Warning: Ps = 0 is less than W.
Warning: Pd = 0 is less than W.
Warning: Ps = 0 is less than W.
Warning: Pd = 0 is less than W.
Warning: Ps = 0 is less than W.
Warning: Pd = 0 is less than W.
Warning: Ps = 0 is less than W.
Warning: Pd = 0 is less than W.
Warning: Ps = 0 is less than W.
Warning: Pd = 0 is less than W.
Warning: Ps = 0 is less than W.
Warning: Pd = 0 is less than W.
Warning: Ps = 0 is less than W.
Warning: Pd = 0 is less than W.
Warning: Ps = 0 is less than W.
Warning: Pd = 0 is less than W.
Warning: Ps = 0 is less than W.
Warning: Pd = 0 is less than W.
Warning: Ps = 0 is less than W.
Warning: Pd = 0 is less than W.
Warning: Ps = 0 is less than W.
Warning: Pd = 0 is less than W.
Warning: Ps = 0 is less than W.
Warning: Pd = 0 is less than W.
Warning: Ps = 0 is less than W.
Warning: Pd = 0 is less than W.
Warning: Ps = 0 is less than W.
Warning: Pd = 0 is less than W.
Warning: Ps = 0 is less than W.
Warning: Pd = 0 is less than W.
Warning: Ps = 0 is less than W.
Warning: Pd = 0 is less than W.
Warning: Ps = 0 is less than W.
Warning: Pd = 0 is less than W.
Warning: Ps = 0 is less than W.
Warning: Pd = 0 is less than W.
Warning: Ps = 0 is less than W.
Warning: Pd = 0 is less than W.
Warning: Ps = 0 is less than W.
Warning: Pd = 0 is less than W.
Warning: Ps = 0 is less than W.
Warning: Pd = 0 is less than W.
Warning: Ps = 0 is less than W.
Warning: Pd = 0 is less than W.
Warning: Ps = 0 is less than W.
Warning: Pd = 0 is less than W.
Warning: Ps = 0 is less than W.
Warning: Pd = 0 is less than W.
Warning: Ps = 0 is less than W.
Warning: Pd = 0 is less than W.
Warning: Ps = 0 is less than W.
Warning: Pd = 0 is less than W.
Warning: Ps = 0 is less than W.
Warning: Pd = 0 is less than W.
Warning: Ps = 0 is less than W.
Warning: Pd = 0 is less than W.
Warning: Ps = 0 is less than W.
Warning: Pd = 0 is less than W.
Warning: Ps = 0 is less than W.
Warning: Pd = 0 is less than W.
Warning: Ps = 0 is less than W.
Early termination of direct N-R iteration.
Direct Newton iteration failed to find .op point.  (Use ".option noopiter" to skip.)
Starting Gmin stepping
Gmin = 10
Gmin = 1.07374
Gmin = 0.115292
Gmin = 0.0123794
Gmin = 0.00132923
Gmin = 0.000142725
Gmin = 1.5325e-005
Gmin = 1.6455e-006
Gmin = 1.76685e-007
Gmin = 1.89714e-008
vernier = 0.5
vernier = 0.25
vernier = 0.125
vernier = 0.0625
vernier = 0.03125
vernier = 0.015625
vernier = 0.0078125
Gmin = 1.21417e-008
vernier = 0.00390625
vernier = 0.00195313
vernier = 0.000976563
vernier = 0.000488281
Gmin = 0
Gmin stepping failed

Starting source stepping with srcstepmethod=0
Source Step = 3.0303%
Source Step = 25.7576%
Source Step = 33.3333%
Source Step = 35.0379%
Source Step = 36.9318%
Source Step = 38.8258%
Source Step = 40.7197%
Source Step = 42.6136%
vernier = 0.09375
Source Step = 45.2652%
vernier = 0.0234375
Source Step = 45.0965%
Source Step = 45.1409%
Source Step = 45.1853%
Source Step = 45.2296%
Source Step = 45.274%
Source Step = 45.3184%
vernier = 0.00219727
Source Step = 45.385%
Source Step = 45.4516%
Source Step = 45.5182%
Source Step = 45.5848%
Source Step = 45.6513%
vernier = 0.0032959
Source Step = 45.7479%
Source Step = 45.8478%
Source Step = 45.9476%
Source Step = 46.0475%
Source Step = 46.1474%
vernier = 0.00494385
Source Step = 46.2872%
Source Step = 46.437%
Source Step = 46.5868%
Source Step = 46.7367%
Source Step = 46.8865%
vernier = 0.00741577
Source Step = 47.0887%
Source Step = 47.3134%
Source Step = 47.5382%
Source Step = 47.7629%
Source Step = 47.9876%
vernier = 0.0111237
Source Step = 48.2797%
Source Step = 48.6168%
Source Step = 48.9539%
Source Step = 49.291%
Source Step = 49.6281%
vernier = 0.0166855
Source Step = 50.0494%
Source Step = 50.555%
Source Step = 51.0606%
Source Step = 51.5663%
Source Step = 52.0719%
vernier = 0.0250282
Source Step = 52.6786%
Source Step = 53.4371%
Source Step = 54.1955%
Source Step = 54.9539%
Source Step = 55.7124%
vernier = 0.0375423
Source Step = 56.5846%
vernier = 0.00938559
Source Step = 56.7552%
Source Step = 57.0396%
Source Step = 57.324%
Source Step = 57.6084%
Source Step = 57.8928%
vernier = 0.0140784
Source Step = 58.3052%
Source Step = 58.7319%
Source Step = 59.1585%
Source Step = 59.5851%
Source Step = 60.0117%
vernier = 0.0211176
Source Step = 60.609%
Source Step = 61.2489%
Source Step = 61.8888%
Source Step = 62.5288%
Source Step = 63.1687%
vernier = 0.0316764
Source Step = 64.0326%
Source Step = 64.9925%
Source Step = 65.9524%
Source Step = 66.9123%
Source Step = 67.8721%
vernier = 0.0475145
Source Step = 69.12%
Source Step = 70.5598%
Source Step = 71.9997%
Source Step = 73.4395%
Source Step = 74.8793%
vernier = 0.0712718
Source Step = 76.6791%
Source Step = 78.8389%
Source Step = 80.9986%
Source Step = 83.1584%
Source Step = 85.3181%
vernier = 0.106908
Source Step = 87.9098%
Source Step = 91.1495%
Source Step = 94.3891%
Source Step = 97.6287%
Source stepping succeeded in finding the operating point.

.step x=4
.step x=5
.step x=6

Date: Wed Apr 26 16:58:36 2017
Total elapsed time: 8.431 seconds.

tnom = 27
temp = 27
method = trap
totiter = 4988
traniter = 0
tranpoints = 0
accept = 0
rejected = 0
matrix size = 90
fillins = 305
solver = Normal
Matrix Compiler1:    2298 opcodes
Matrix Compiler2: 17.37 KB object code size  4.4/4.6/[2.2]


