Circuit: * C:\Users\mary.west\Desktop\LTspice tutorial\Advanced\SIMS\Draft6.asc

Direct Newton iteration for .op point succeeded.
Ignoring empty pin current: Ix(x1:v+)
Ignoring empty pin current: Ix(x1:v-)
Ignoring empty pin current: Ix(x1:v+)
Ignoring empty pin current: Ix(x1:v-)

Date: Fri Apr 28 14:24:10 2017
Total elapsed time: 0.032 seconds.

tnom = 27
temp = 27
method = modified trap
totiter = 2085
traniter = 2082
tranpoints = 1042
accept = 1042
rejected = 0
matrix size = 4
fillins = 0
solver = Normal
Matrix Compiler1: 82 bytes object code size  0.0/0.0/[0.0]
Matrix Compiler2: off  [0.0]/0.1/0.1


