Circuit: * C:\Users\mary.west\Desktop\LTspice tutorial\Advanced\SIMS\Draft1.asc

Error on line 3 : v1 vplus 0 v
	 Unknown parameter "v"
Error on line 4 : v2 0 vminus v
	 Unknown parameter "v"
V2: Missing value, assumed 0V @ DC
V1: Missing value, assumed 0V @ DC
No AC stimulus found:
     Set the value of a current or voltage source to "AC 1."
     to make it behave as a signal generator for AC analysis.
Direct Newton iteration failed to find .op point.  (Use ".option noopiter" to skip.)
Starting Gmin stepping
Gmin = 10
Gmin = 1.07374
Gmin = 0.115292
Gmin = 0.0123794
Gmin = 0.00132923
Gmin = 0.000142725
Gmin = 1.5325e-005
Gmin = 1.6455e-006
Gmin = 1.76685e-007
Gmin = 1.89714e-008
Gmin = 2.03704e-009
Gmin = 2.18725e-010
Gmin = 2.34854e-011
Gmin = 2.52173e-012
Gmin = 2.70769e-013
Gmin = 0
Gmin stepping succeeded in finding the operating point.


Date: Fri Apr 28 15:48:47 2017
Total elapsed time: 0.103 seconds.

tnom = 27
temp = 27
method = trap
totiter = 448
traniter = 0
tranpoints = 0
accept = 0
rejected = 0
matrix size = 46
fillins = 22
solver = Normal
Matrix Compiler1:     353 opcodes
Matrix Compiler2: off  [1.1]/1.8/2.6


