Circuit: * C:\Users\mary.west\Desktop\LTspice tutorial\Advanced\SIMS\Ideal_NOFB.asc

WARNING: Less than two connections to node VOUT.  This node is used by E:X1:1.
Direct Newton iteration for .op point succeeded.
Ignoring empty pin current: Ix(x1:v+)
Ignoring empty pin current: Ix(x1:v-)
Ignoring empty pin current: Ix(x1:v+)
Ignoring empty pin current: Ix(x1:v-)

Date: Fri Apr 28 11:09:10 2017
Total elapsed time: 0.028 seconds.

tnom = 27
temp = 27
method = modified trap
totiter = 2085
traniter = 2082
tranpoints = 1042
accept = 1042
rejected = 0
matrix size = 4
fillins = 0
solver = Normal
Matrix Compiler1: 64 bytes object code size  0.0/0.1/[0.0]
Matrix Compiler2: 174 bytes object code size  0.1/0.1/[0.0]


