Circuit: * C:\Users\mary.west\Desktop\LTspice tutorial\Advanced\SIMS\Inverting_Amplifer.asc

.OP point found by inspection.
Ignoring empty pin current: Ix(x1:v+)
Ignoring empty pin current: Ix(x1:v-)
Ignoring empty pin current: Ix(x1:v+)
Ignoring empty pin current: Ix(x1:v-)

Date: Fri Apr 28 11:30:01 2017
Total elapsed time: 0.069 seconds.

tnom = 27
temp = 27
method = modified trap
totiter = 2082
traniter = 2082
tranpoints = 1042
accept = 1042
rejected = 0
matrix size = 5
fillins = 0
solver = Normal
Matrix Compiler1: 150 bytes object code size  0.3/0.2/[0.0]
Matrix Compiler2: 315 bytes object code size  0.1/0.0/[0.0]


