Circuit: * C:\Users\mary.west\Desktop\LTspice tutorial\Advanced\SIMS\Step_Response.asc

Direct Newton iteration failed to find .op point.  (Use ".option noopiter" to skip.)
Starting Gmin stepping
Gmin = 10
Gmin = 1.07374
Gmin = 0.115292
Gmin = 0.0123794
Gmin = 0.00132923
Gmin = 0.000142725
Gmin = 1.5325e-005
Gmin = 1.6455e-006
Gmin = 1.76685e-007
Gmin = 1.89714e-008
Gmin = 2.03704e-009
Gmin = 2.18725e-010
Gmin = 2.34854e-011
Gmin = 2.52173e-012
Gmin = 2.70769e-013
Gmin = 0
Gmin stepping succeeded in finding the operating point.

.step x=3
.step x=6
.step x=9
.step x=12
.step x=15

Date: Tue Apr 25 13:35:42 2017
Total elapsed time: 0.985 seconds.

tnom = 27
temp = 27
method = modified trap
totiter = 3716
traniter = 2253
tranpoints = 1111
accept = 1092
rejected = 19
matrix size = 44
fillins = 30
solver = Normal
Thread vector: 14.5/8.7[2] 8.4/5.3[2] 3.5/3.6[1] 0.7/2.4[1]  2592/500
Matrix Compiler1: 6.75 KB object code size  2.6/2.6/[0.8]
Matrix Compiler2: 5.21 KB object code size  1.8/1.8/[0.9]


